
---------- Begin Simulation Statistics ----------
sim_seconds                                  0.088188                       # Number of seconds simulated
sim_ticks                                 88188498000                       # Number of ticks simulated
final_tick                                88188498000                       # Number of ticks from beginning of simulation (restored from checkpoints and never reset)
sim_freq                                 1000000000000                       # Frequency of simulated ticks
host_inst_rate                                1085966                       # Simulator instruction rate (inst/s)
host_op_rate                                  1789642                       # Simulator op (including micro ops) rate (op/s)
host_tick_rate                             2152625753                       # Simulator tick rate (ticks/s)
host_mem_usage                                 662232                       # Number of bytes of host memory used
host_seconds                                    40.97                       # Real time elapsed on the host
sim_insts                                    44489695                       # Number of instructions simulated
sim_ops                                      73317824                       # Number of ops (including micro ops) simulated
system.voltage_domain.voltage                       1                       # Voltage in Volts
system.clk_domain.clock                          1000                       # Clock period in ticks
system.mem_ctrls.pwrStateResidencyTicks::UNDEFINED  88188498000                       # Cumulative time (in ticks) in various power states
system.mem_ctrls.bytes_read::cpu.inst           22528                       # Number of bytes read from this memory
system.mem_ctrls.bytes_read::cpu.data          447744                       # Number of bytes read from this memory
system.mem_ctrls.bytes_read::total             470272                       # Number of bytes read from this memory
system.mem_ctrls.bytes_inst_read::cpu.inst        22528                       # Number of instructions bytes read from this memory
system.mem_ctrls.bytes_inst_read::total         22528                       # Number of instructions bytes read from this memory
system.mem_ctrls.bytes_written::writebacks        40512                       # Number of bytes written to this memory
system.mem_ctrls.bytes_written::total           40512                       # Number of bytes written to this memory
system.mem_ctrls.num_reads::cpu.inst              352                       # Number of read requests responded to by this memory
system.mem_ctrls.num_reads::cpu.data             6996                       # Number of read requests responded to by this memory
system.mem_ctrls.num_reads::total                7348                       # Number of read requests responded to by this memory
system.mem_ctrls.num_writes::writebacks           633                       # Number of write requests responded to by this memory
system.mem_ctrls.num_writes::total                633                       # Number of write requests responded to by this memory
system.mem_ctrls.bw_read::cpu.inst             255453                       # Total read bandwidth from this memory (bytes/s)
system.mem_ctrls.bw_read::cpu.data            5077125                       # Total read bandwidth from this memory (bytes/s)
system.mem_ctrls.bw_read::total               5332577                       # Total read bandwidth from this memory (bytes/s)
system.mem_ctrls.bw_inst_read::cpu.inst        255453                       # Instruction read bandwidth from this memory (bytes/s)
system.mem_ctrls.bw_inst_read::total           255453                       # Instruction read bandwidth from this memory (bytes/s)
system.mem_ctrls.bw_write::writebacks          459380                       # Write bandwidth from this memory (bytes/s)
system.mem_ctrls.bw_write::total               459380                       # Write bandwidth from this memory (bytes/s)
system.mem_ctrls.bw_total::writebacks          459380                       # Total bandwidth to/from this memory (bytes/s)
system.mem_ctrls.bw_total::cpu.inst            255453                       # Total bandwidth to/from this memory (bytes/s)
system.mem_ctrls.bw_total::cpu.data           5077125                       # Total bandwidth to/from this memory (bytes/s)
system.mem_ctrls.bw_total::total              5791957                       # Total bandwidth to/from this memory (bytes/s)
system.pwrStateResidencyTicks::UNDEFINED  88188498000                       # Cumulative time (in ticks) in various power states
system.cpu_voltage_domain.voltage                   1                       # Voltage in Volts
system.cpu_clk_domain.clock                       500                       # Clock period in ticks
system.cpu.dtb.walker.pwrStateResidencyTicks::UNDEFINED  88188498000                       # Cumulative time (in ticks) in various power states
system.cpu.dtb.rdAccesses                    20877738                       # TLB accesses on read requests
system.cpu.dtb.wrAccesses                     5816528                       # TLB accesses on write requests
system.cpu.dtb.rdMisses                           166                       # TLB misses on read requests
system.cpu.dtb.wrMisses                           106                       # TLB misses on write requests
system.cpu.apic_clk_domain.clock                 8000                       # Clock period in ticks
system.cpu.interrupts.pwrStateResidencyTicks::UNDEFINED  88188498000                       # Cumulative time (in ticks) in various power states
system.cpu.itb.walker.pwrStateResidencyTicks::UNDEFINED  88188498000                       # Cumulative time (in ticks) in various power states
system.cpu.itb.rdAccesses                           0                       # TLB accesses on read requests
system.cpu.itb.wrAccesses                    59516880                       # TLB accesses on write requests
system.cpu.itb.rdMisses                             0                       # TLB misses on read requests
system.cpu.itb.wrMisses                            37                       # TLB misses on write requests
system.cpu.workload.numSyscalls                     9                       # Number of system calls
system.cpu.pwrStateResidencyTicks::ON     88188498000                       # Cumulative time (in ticks) in various power states
system.cpu.numCycles                        176376996                       # number of cpu cycles simulated
system.cpu.numWorkItemsStarted                      0                       # number of work items this cpu started
system.cpu.numWorkItemsCompleted                    0                       # number of work items this cpu completed
system.cpu.committedInsts                    44489695                       # Number of instructions committed
system.cpu.committedOps                      73317824                       # Number of ops (including micro ops) committed
system.cpu.num_int_alu_accesses              72795900                       # Number of integer alu accesses
system.cpu.num_fp_alu_accesses                   1943                       # Number of float alu accesses
system.cpu.num_vec_alu_accesses                     0                       # Number of vector alu accesses
system.cpu.num_func_calls                      944900                       # number of times a function call or return occured
system.cpu.num_conditional_control_insts      4232450                       # number of instructions that are conditional controls
system.cpu.num_int_insts                     72795900                       # number of integer instructions
system.cpu.num_fp_insts                          1943                       # number of float instructions
system.cpu.num_vec_insts                            0                       # number of vector instructions
system.cpu.num_int_register_reads           163691523                       # number of times the integer registers were read
system.cpu.num_int_register_writes           63586393                       # number of times the integer registers were written
system.cpu.num_fp_register_reads                 3767                       # number of times the floating registers were read
system.cpu.num_fp_register_writes                1480                       # number of times the floating registers were written
system.cpu.num_vec_register_reads                   0                       # number of times the vector registers were read
system.cpu.num_vec_register_writes                  0                       # number of times the vector registers were written
system.cpu.num_cc_register_reads             27636605                       # number of times the CC registers were read
system.cpu.num_cc_register_writes            24933065                       # number of times the CC registers were written
system.cpu.num_mem_refs                      26694261                       # number of memory refs
system.cpu.num_load_insts                    20877733                       # Number of load instructions
system.cpu.num_store_insts                    5816528                       # Number of store instructions
system.cpu.num_idle_cycles                          0                       # Number of idle cycles
system.cpu.num_busy_cycles                  176376996                       # Number of busy cycles
system.cpu.not_idle_fraction                        1                       # Percentage of non-idle cycles
system.cpu.idle_fraction                            0                       # Percentage of idle cycles
system.cpu.Branches                           5574734                       # Number of branches fetched
system.cpu.op_class::No_OpClass                175846      0.24%      0.24% # Class of executed instruction
system.cpu.op_class::IntAlu                  45443759     61.98%     62.22% # Class of executed instruction
system.cpu.op_class::IntMult                        4      0.00%     62.22% # Class of executed instruction
system.cpu.op_class::IntDiv                   1002994      1.37%     63.59% # Class of executed instruction
system.cpu.op_class::FloatAdd                      10      0.00%     63.59% # Class of executed instruction
system.cpu.op_class::FloatCmp                       0      0.00%     63.59% # Class of executed instruction
system.cpu.op_class::FloatCvt                       0      0.00%     63.59% # Class of executed instruction
system.cpu.op_class::FloatMult                      0      0.00%     63.59% # Class of executed instruction
system.cpu.op_class::FloatMultAcc                   0      0.00%     63.59% # Class of executed instruction
system.cpu.op_class::FloatDiv                       0      0.00%     63.59% # Class of executed instruction
system.cpu.op_class::FloatMisc                      0      0.00%     63.59% # Class of executed instruction
system.cpu.op_class::FloatSqrt                      0      0.00%     63.59% # Class of executed instruction
system.cpu.op_class::SimdAdd                      374      0.00%     63.59% # Class of executed instruction
system.cpu.op_class::SimdAddAcc                     0      0.00%     63.59% # Class of executed instruction
system.cpu.op_class::SimdAlu                       68      0.00%     63.59% # Class of executed instruction
system.cpu.op_class::SimdCmp                        0      0.00%     63.59% # Class of executed instruction
system.cpu.op_class::SimdCvt                      108      0.00%     63.59% # Class of executed instruction
system.cpu.op_class::SimdMisc                     214      0.00%     63.59% # Class of executed instruction
system.cpu.op_class::SimdMult                       0      0.00%     63.59% # Class of executed instruction
system.cpu.op_class::SimdMultAcc                    0      0.00%     63.59% # Class of executed instruction
system.cpu.op_class::SimdShift                    186      0.00%     63.59% # Class of executed instruction
system.cpu.op_class::SimdShiftAcc                   0      0.00%     63.59% # Class of executed instruction
system.cpu.op_class::SimdSqrt                       0      0.00%     63.59% # Class of executed instruction
system.cpu.op_class::SimdFloatAdd                   0      0.00%     63.59% # Class of executed instruction
system.cpu.op_class::SimdFloatAlu                   0      0.00%     63.59% # Class of executed instruction
system.cpu.op_class::SimdFloatCmp                   0      0.00%     63.59% # Class of executed instruction
system.cpu.op_class::SimdFloatCvt                   0      0.00%     63.59% # Class of executed instruction
system.cpu.op_class::SimdFloatDiv                   0      0.00%     63.59% # Class of executed instruction
system.cpu.op_class::SimdFloatMisc                  0      0.00%     63.59% # Class of executed instruction
system.cpu.op_class::SimdFloatMult                  0      0.00%     63.59% # Class of executed instruction
system.cpu.op_class::SimdFloatMultAcc               0      0.00%     63.59% # Class of executed instruction
system.cpu.op_class::SimdFloatSqrt                  0      0.00%     63.59% # Class of executed instruction
system.cpu.op_class::MemRead                 20877677     28.48%     92.07% # Class of executed instruction
system.cpu.op_class::MemWrite                 5816113      7.93%    100.00% # Class of executed instruction
system.cpu.op_class::FloatMemRead                  56      0.00%    100.00% # Class of executed instruction
system.cpu.op_class::FloatMemWrite                415      0.00%    100.00% # Class of executed instruction
system.cpu.op_class::IprAccess                      0      0.00%    100.00% # Class of executed instruction
system.cpu.op_class::InstPrefetch                   0      0.00%    100.00% # Class of executed instruction
system.cpu.op_class::total                   73317824                       # Class of executed instruction
system.cpu.dcache.tags.pwrStateResidencyTicks::UNDEFINED  88188498000                       # Cumulative time (in ticks) in various power states
system.cpu.dcache.tags.tagsinuse          1014.361324                       # Cycle average of tags in use
system.cpu.dcache.tags.total_refs            26694266                       # Total number of references to valid blocks.
system.cpu.dcache.tags.sampled_refs             36896                       # Sample count of references to valid blocks.
system.cpu.dcache.tags.avg_refs            723.500271                       # Average number of references to valid blocks.
system.cpu.dcache.tags.warmup_cycle            765000                       # Cycle when the warmup percentage was hit.
system.cpu.dcache.tags.occ_blocks::cpu.data  1014.361324                       # Average occupied blocks per requestor
system.cpu.dcache.tags.occ_percent::cpu.data     0.990587                       # Average percentage of cache occupancy
system.cpu.dcache.tags.occ_percent::total     0.990587                       # Average percentage of cache occupancy
system.cpu.dcache.tags.occ_task_id_blocks::1024         1024                       # Occupied blocks per task id
system.cpu.dcache.tags.age_task_id_blocks_1024::0           15                       # Occupied blocks per task id
system.cpu.dcache.tags.age_task_id_blocks_1024::1           10                       # Occupied blocks per task id
system.cpu.dcache.tags.age_task_id_blocks_1024::2           35                       # Occupied blocks per task id
system.cpu.dcache.tags.age_task_id_blocks_1024::3          477                       # Occupied blocks per task id
system.cpu.dcache.tags.age_task_id_blocks_1024::4          487                       # Occupied blocks per task id
system.cpu.dcache.tags.occ_task_id_percent::1024            1                       # Percentage of cache occupancy per task id
system.cpu.dcache.tags.tag_accesses          53425428                       # Number of tag accesses
system.cpu.dcache.tags.data_accesses         53425428                       # Number of data accesses
system.cpu.dcache.pwrStateResidencyTicks::UNDEFINED  88188498000                       # Cumulative time (in ticks) in various power states
system.cpu.dcache.ReadReq_hits::cpu.data     20847436                       # number of ReadReq hits
system.cpu.dcache.ReadReq_hits::total        20847436                       # number of ReadReq hits
system.cpu.dcache.WriteReq_hits::cpu.data      5794550                       # number of WriteReq hits
system.cpu.dcache.WriteReq_hits::total        5794550                       # number of WriteReq hits
system.cpu.dcache.demand_hits::cpu.data      26641986                       # number of demand (read+write) hits
system.cpu.dcache.demand_hits::total         26641986                       # number of demand (read+write) hits
system.cpu.dcache.overall_hits::cpu.data     26641986                       # number of overall hits
system.cpu.dcache.overall_hits::total        26641986                       # number of overall hits
system.cpu.dcache.ReadReq_misses::cpu.data        30302                       # number of ReadReq misses
system.cpu.dcache.ReadReq_misses::total         30302                       # number of ReadReq misses
system.cpu.dcache.WriteReq_misses::cpu.data        21978                       # number of WriteReq misses
system.cpu.dcache.WriteReq_misses::total        21978                       # number of WriteReq misses
system.cpu.dcache.demand_misses::cpu.data        52280                       # number of demand (read+write) misses
system.cpu.dcache.demand_misses::total          52280                       # number of demand (read+write) misses
system.cpu.dcache.overall_misses::cpu.data        52280                       # number of overall misses
system.cpu.dcache.overall_misses::total         52280                       # number of overall misses
system.cpu.dcache.ReadReq_miss_latency::cpu.data   1002774000                       # number of ReadReq miss cycles
system.cpu.dcache.ReadReq_miss_latency::total   1002774000                       # number of ReadReq miss cycles
system.cpu.dcache.WriteReq_miss_latency::cpu.data    969528500                       # number of WriteReq miss cycles
system.cpu.dcache.WriteReq_miss_latency::total    969528500                       # number of WriteReq miss cycles
system.cpu.dcache.demand_miss_latency::cpu.data   1972302500                       # number of demand (read+write) miss cycles
system.cpu.dcache.demand_miss_latency::total   1972302500                       # number of demand (read+write) miss cycles
system.cpu.dcache.overall_miss_latency::cpu.data   1972302500                       # number of overall miss cycles
system.cpu.dcache.overall_miss_latency::total   1972302500                       # number of overall miss cycles
system.cpu.dcache.ReadReq_accesses::cpu.data     20877738                       # number of ReadReq accesses(hits+misses)
system.cpu.dcache.ReadReq_accesses::total     20877738                       # number of ReadReq accesses(hits+misses)
system.cpu.dcache.WriteReq_accesses::cpu.data      5816528                       # number of WriteReq accesses(hits+misses)
system.cpu.dcache.WriteReq_accesses::total      5816528                       # number of WriteReq accesses(hits+misses)
system.cpu.dcache.demand_accesses::cpu.data     26694266                       # number of demand (read+write) accesses
system.cpu.dcache.demand_accesses::total     26694266                       # number of demand (read+write) accesses
system.cpu.dcache.overall_accesses::cpu.data     26694266                       # number of overall (read+write) accesses
system.cpu.dcache.overall_accesses::total     26694266                       # number of overall (read+write) accesses
system.cpu.dcache.ReadReq_miss_rate::cpu.data     0.001451                       # miss rate for ReadReq accesses
system.cpu.dcache.ReadReq_miss_rate::total     0.001451                       # miss rate for ReadReq accesses
system.cpu.dcache.WriteReq_miss_rate::cpu.data     0.003779                       # miss rate for WriteReq accesses
system.cpu.dcache.WriteReq_miss_rate::total     0.003779                       # miss rate for WriteReq accesses
system.cpu.dcache.demand_miss_rate::cpu.data     0.001958                       # miss rate for demand accesses
system.cpu.dcache.demand_miss_rate::total     0.001958                       # miss rate for demand accesses
system.cpu.dcache.overall_miss_rate::cpu.data     0.001958                       # miss rate for overall accesses
system.cpu.dcache.overall_miss_rate::total     0.001958                       # miss rate for overall accesses
system.cpu.dcache.ReadReq_avg_miss_latency::cpu.data 33092.667151                       # average ReadReq miss latency
system.cpu.dcache.ReadReq_avg_miss_latency::total 33092.667151                       # average ReadReq miss latency
system.cpu.dcache.WriteReq_avg_miss_latency::cpu.data 44113.590864                       # average WriteReq miss latency
system.cpu.dcache.WriteReq_avg_miss_latency::total 44113.590864                       # average WriteReq miss latency
system.cpu.dcache.demand_avg_miss_latency::cpu.data 37725.755547                       # average overall miss latency
system.cpu.dcache.demand_avg_miss_latency::total 37725.755547                       # average overall miss latency
system.cpu.dcache.overall_avg_miss_latency::cpu.data 37725.755547                       # average overall miss latency
system.cpu.dcache.overall_avg_miss_latency::total 37725.755547                       # average overall miss latency
system.cpu.dcache.blocked_cycles::no_mshrs            0                       # number of cycles access was blocked
system.cpu.dcache.blocked_cycles::no_targets            0                       # number of cycles access was blocked
system.cpu.dcache.blocked::no_mshrs                 0                       # number of cycles access was blocked
system.cpu.dcache.blocked::no_targets               0                       # number of cycles access was blocked
system.cpu.dcache.avg_blocked_cycles::no_mshrs          nan                       # average number of cycles each access was blocked
system.cpu.dcache.avg_blocked_cycles::no_targets          nan                       # average number of cycles each access was blocked
system.cpu.dcache.writebacks::writebacks        34711                       # number of writebacks
system.cpu.dcache.writebacks::total             34711                       # number of writebacks
system.cpu.dcache.ReadReq_mshr_misses::cpu.data        30302                       # number of ReadReq MSHR misses
system.cpu.dcache.ReadReq_mshr_misses::total        30302                       # number of ReadReq MSHR misses
system.cpu.dcache.WriteReq_mshr_misses::cpu.data        21978                       # number of WriteReq MSHR misses
system.cpu.dcache.WriteReq_mshr_misses::total        21978                       # number of WriteReq MSHR misses
system.cpu.dcache.demand_mshr_misses::cpu.data        52280                       # number of demand (read+write) MSHR misses
system.cpu.dcache.demand_mshr_misses::total        52280                       # number of demand (read+write) MSHR misses
system.cpu.dcache.overall_mshr_misses::cpu.data        52280                       # number of overall MSHR misses
system.cpu.dcache.overall_mshr_misses::total        52280                       # number of overall MSHR misses
system.cpu.dcache.ReadReq_mshr_miss_latency::cpu.data    972472000                       # number of ReadReq MSHR miss cycles
system.cpu.dcache.ReadReq_mshr_miss_latency::total    972472000                       # number of ReadReq MSHR miss cycles
system.cpu.dcache.WriteReq_mshr_miss_latency::cpu.data    947550500                       # number of WriteReq MSHR miss cycles
system.cpu.dcache.WriteReq_mshr_miss_latency::total    947550500                       # number of WriteReq MSHR miss cycles
system.cpu.dcache.demand_mshr_miss_latency::cpu.data   1920022500                       # number of demand (read+write) MSHR miss cycles
system.cpu.dcache.demand_mshr_miss_latency::total   1920022500                       # number of demand (read+write) MSHR miss cycles
system.cpu.dcache.overall_mshr_miss_latency::cpu.data   1920022500                       # number of overall MSHR miss cycles
system.cpu.dcache.overall_mshr_miss_latency::total   1920022500                       # number of overall MSHR miss cycles
system.cpu.dcache.ReadReq_mshr_miss_rate::cpu.data     0.001451                       # mshr miss rate for ReadReq accesses
system.cpu.dcache.ReadReq_mshr_miss_rate::total     0.001451                       # mshr miss rate for ReadReq accesses
system.cpu.dcache.WriteReq_mshr_miss_rate::cpu.data     0.003779                       # mshr miss rate for WriteReq accesses
system.cpu.dcache.WriteReq_mshr_miss_rate::total     0.003779                       # mshr miss rate for WriteReq accesses
system.cpu.dcache.demand_mshr_miss_rate::cpu.data     0.001958                       # mshr miss rate for demand accesses
system.cpu.dcache.demand_mshr_miss_rate::total     0.001958                       # mshr miss rate for demand accesses
system.cpu.dcache.overall_mshr_miss_rate::cpu.data     0.001958                       # mshr miss rate for overall accesses
system.cpu.dcache.overall_mshr_miss_rate::total     0.001958                       # mshr miss rate for overall accesses
system.cpu.dcache.ReadReq_avg_mshr_miss_latency::cpu.data 32092.667151                       # average ReadReq mshr miss latency
system.cpu.dcache.ReadReq_avg_mshr_miss_latency::total 32092.667151                       # average ReadReq mshr miss latency
system.cpu.dcache.WriteReq_avg_mshr_miss_latency::cpu.data 43113.590864                       # average WriteReq mshr miss latency
system.cpu.dcache.WriteReq_avg_mshr_miss_latency::total 43113.590864                       # average WriteReq mshr miss latency
system.cpu.dcache.demand_avg_mshr_miss_latency::cpu.data 36725.755547                       # average overall mshr miss latency
system.cpu.dcache.demand_avg_mshr_miss_latency::total 36725.755547                       # average overall mshr miss latency
system.cpu.dcache.overall_avg_mshr_miss_latency::cpu.data 36725.755547                       # average overall mshr miss latency
system.cpu.dcache.overall_avg_mshr_miss_latency::total 36725.755547                       # average overall mshr miss latency
system.cpu.dcache.replacements                  35872                       # number of replacements
system.cpu.dtb_walker_cache.tags.pwrStateResidencyTicks::UNDEFINED  88188498000                       # Cumulative time (in ticks) in various power states
system.cpu.dtb_walker_cache.tags.tagsinuse            0                       # Cycle average of tags in use
system.cpu.dtb_walker_cache.tags.total_refs            0                       # Total number of references to valid blocks.
system.cpu.dtb_walker_cache.tags.sampled_refs            0                       # Sample count of references to valid blocks.
system.cpu.dtb_walker_cache.tags.avg_refs          nan                       # Average number of references to valid blocks.
system.cpu.dtb_walker_cache.tags.warmup_cycle            0                       # Cycle when the warmup percentage was hit.
system.cpu.dtb_walker_cache.tags.tag_accesses            0                       # Number of tag accesses
system.cpu.dtb_walker_cache.tags.data_accesses            0                       # Number of data accesses
system.cpu.dtb_walker_cache.pwrStateResidencyTicks::UNDEFINED  88188498000                       # Cumulative time (in ticks) in various power states
system.cpu.dtb_walker_cache.blocked_cycles::no_mshrs            0                       # number of cycles access was blocked
system.cpu.dtb_walker_cache.blocked_cycles::no_targets            0                       # number of cycles access was blocked
system.cpu.dtb_walker_cache.blocked::no_mshrs            0                       # number of cycles access was blocked
system.cpu.dtb_walker_cache.blocked::no_targets            0                       # number of cycles access was blocked
system.cpu.dtb_walker_cache.avg_blocked_cycles::no_mshrs          nan                       # average number of cycles each access was blocked
system.cpu.dtb_walker_cache.avg_blocked_cycles::no_targets          nan                       # average number of cycles each access was blocked
system.cpu.dtb_walker_cache.replacements            0                       # number of replacements
system.cpu.icache.tags.pwrStateResidencyTicks::UNDEFINED  88188498000                       # Cumulative time (in ticks) in various power states
system.cpu.icache.tags.tagsinuse           279.280531                       # Cycle average of tags in use
system.cpu.icache.tags.total_refs            59516880                       # Total number of references to valid blocks.
system.cpu.icache.tags.sampled_refs               352                       # Sample count of references to valid blocks.
system.cpu.icache.tags.avg_refs          169082.045455                       # Average number of references to valid blocks.
system.cpu.icache.tags.warmup_cycle            445000                       # Cycle when the warmup percentage was hit.
system.cpu.icache.tags.occ_blocks::cpu.inst   279.280531                       # Average occupied blocks per requestor
system.cpu.icache.tags.occ_percent::cpu.inst     0.545470                       # Average percentage of cache occupancy
system.cpu.icache.tags.occ_percent::total     0.545470                       # Average percentage of cache occupancy
system.cpu.icache.tags.occ_task_id_blocks::1024          309                       # Occupied blocks per task id
system.cpu.icache.tags.age_task_id_blocks_1024::0           27                       # Occupied blocks per task id
system.cpu.icache.tags.age_task_id_blocks_1024::1           11                       # Occupied blocks per task id
system.cpu.icache.tags.age_task_id_blocks_1024::4          271                       # Occupied blocks per task id
system.cpu.icache.tags.occ_task_id_percent::1024     0.603516                       # Percentage of cache occupancy per task id
system.cpu.icache.tags.tag_accesses         119034112                       # Number of tag accesses
system.cpu.icache.tags.data_accesses        119034112                       # Number of data accesses
system.cpu.icache.pwrStateResidencyTicks::UNDEFINED  88188498000                       # Cumulative time (in ticks) in various power states
system.cpu.icache.ReadReq_hits::cpu.inst     59516528                       # number of ReadReq hits
system.cpu.icache.ReadReq_hits::total        59516528                       # number of ReadReq hits
system.cpu.icache.demand_hits::cpu.inst      59516528                       # number of demand (read+write) hits
system.cpu.icache.demand_hits::total         59516528                       # number of demand (read+write) hits
system.cpu.icache.overall_hits::cpu.inst     59516528                       # number of overall hits
system.cpu.icache.overall_hits::total        59516528                       # number of overall hits
system.cpu.icache.ReadReq_misses::cpu.inst          352                       # number of ReadReq misses
system.cpu.icache.ReadReq_misses::total           352                       # number of ReadReq misses
system.cpu.icache.demand_misses::cpu.inst          352                       # number of demand (read+write) misses
system.cpu.icache.demand_misses::total            352                       # number of demand (read+write) misses
system.cpu.icache.overall_misses::cpu.inst          352                       # number of overall misses
system.cpu.icache.overall_misses::total           352                       # number of overall misses
system.cpu.icache.ReadReq_miss_latency::cpu.inst     57686000                       # number of ReadReq miss cycles
system.cpu.icache.ReadReq_miss_latency::total     57686000                       # number of ReadReq miss cycles
system.cpu.icache.demand_miss_latency::cpu.inst     57686000                       # number of demand (read+write) miss cycles
system.cpu.icache.demand_miss_latency::total     57686000                       # number of demand (read+write) miss cycles
system.cpu.icache.overall_miss_latency::cpu.inst     57686000                       # number of overall miss cycles
system.cpu.icache.overall_miss_latency::total     57686000                       # number of overall miss cycles
system.cpu.icache.ReadReq_accesses::cpu.inst     59516880                       # number of ReadReq accesses(hits+misses)
system.cpu.icache.ReadReq_accesses::total     59516880                       # number of ReadReq accesses(hits+misses)
system.cpu.icache.demand_accesses::cpu.inst     59516880                       # number of demand (read+write) accesses
system.cpu.icache.demand_accesses::total     59516880                       # number of demand (read+write) accesses
system.cpu.icache.overall_accesses::cpu.inst     59516880                       # number of overall (read+write) accesses
system.cpu.icache.overall_accesses::total     59516880                       # number of overall (read+write) accesses
system.cpu.icache.ReadReq_miss_rate::cpu.inst     0.000006                       # miss rate for ReadReq accesses
system.cpu.icache.ReadReq_miss_rate::total     0.000006                       # miss rate for ReadReq accesses
system.cpu.icache.demand_miss_rate::cpu.inst     0.000006                       # miss rate for demand accesses
system.cpu.icache.demand_miss_rate::total     0.000006                       # miss rate for demand accesses
system.cpu.icache.overall_miss_rate::cpu.inst     0.000006                       # miss rate for overall accesses
system.cpu.icache.overall_miss_rate::total     0.000006                       # miss rate for overall accesses
system.cpu.icache.ReadReq_avg_miss_latency::cpu.inst 163880.681818                       # average ReadReq miss latency
system.cpu.icache.ReadReq_avg_miss_latency::total 163880.681818                       # average ReadReq miss latency
system.cpu.icache.demand_avg_miss_latency::cpu.inst 163880.681818                       # average overall miss latency
system.cpu.icache.demand_avg_miss_latency::total 163880.681818                       # average overall miss latency
system.cpu.icache.overall_avg_miss_latency::cpu.inst 163880.681818                       # average overall miss latency
system.cpu.icache.overall_avg_miss_latency::total 163880.681818                       # average overall miss latency
system.cpu.icache.blocked_cycles::no_mshrs            0                       # number of cycles access was blocked
system.cpu.icache.blocked_cycles::no_targets            0                       # number of cycles access was blocked
system.cpu.icache.blocked::no_mshrs                 0                       # number of cycles access was blocked
system.cpu.icache.blocked::no_targets               0                       # number of cycles access was blocked
system.cpu.icache.avg_blocked_cycles::no_mshrs          nan                       # average number of cycles each access was blocked
system.cpu.icache.avg_blocked_cycles::no_targets          nan                       # average number of cycles each access was blocked
system.cpu.icache.writebacks::writebacks           43                       # number of writebacks
system.cpu.icache.writebacks::total                43                       # number of writebacks
system.cpu.icache.ReadReq_mshr_misses::cpu.inst          352                       # number of ReadReq MSHR misses
system.cpu.icache.ReadReq_mshr_misses::total          352                       # number of ReadReq MSHR misses
system.cpu.icache.demand_mshr_misses::cpu.inst          352                       # number of demand (read+write) MSHR misses
system.cpu.icache.demand_mshr_misses::total          352                       # number of demand (read+write) MSHR misses
system.cpu.icache.overall_mshr_misses::cpu.inst          352                       # number of overall MSHR misses
system.cpu.icache.overall_mshr_misses::total          352                       # number of overall MSHR misses
system.cpu.icache.ReadReq_mshr_miss_latency::cpu.inst     57334000                       # number of ReadReq MSHR miss cycles
system.cpu.icache.ReadReq_mshr_miss_latency::total     57334000                       # number of ReadReq MSHR miss cycles
system.cpu.icache.demand_mshr_miss_latency::cpu.inst     57334000                       # number of demand (read+write) MSHR miss cycles
system.cpu.icache.demand_mshr_miss_latency::total     57334000                       # number of demand (read+write) MSHR miss cycles
system.cpu.icache.overall_mshr_miss_latency::cpu.inst     57334000                       # number of overall MSHR miss cycles
system.cpu.icache.overall_mshr_miss_latency::total     57334000                       # number of overall MSHR miss cycles
system.cpu.icache.ReadReq_mshr_miss_rate::cpu.inst     0.000006                       # mshr miss rate for ReadReq accesses
system.cpu.icache.ReadReq_mshr_miss_rate::total     0.000006                       # mshr miss rate for ReadReq accesses
system.cpu.icache.demand_mshr_miss_rate::cpu.inst     0.000006                       # mshr miss rate for demand accesses
system.cpu.icache.demand_mshr_miss_rate::total     0.000006                       # mshr miss rate for demand accesses
system.cpu.icache.overall_mshr_miss_rate::cpu.inst     0.000006                       # mshr miss rate for overall accesses
system.cpu.icache.overall_mshr_miss_rate::total     0.000006                       # mshr miss rate for overall accesses
system.cpu.icache.ReadReq_avg_mshr_miss_latency::cpu.inst 162880.681818                       # average ReadReq mshr miss latency
system.cpu.icache.ReadReq_avg_mshr_miss_latency::total 162880.681818                       # average ReadReq mshr miss latency
system.cpu.icache.demand_avg_mshr_miss_latency::cpu.inst 162880.681818                       # average overall mshr miss latency
system.cpu.icache.demand_avg_mshr_miss_latency::total 162880.681818                       # average overall mshr miss latency
system.cpu.icache.overall_avg_mshr_miss_latency::cpu.inst 162880.681818                       # average overall mshr miss latency
system.cpu.icache.overall_avg_mshr_miss_latency::total 162880.681818                       # average overall mshr miss latency
system.cpu.icache.replacements                     43                       # number of replacements
system.cpu.itb_walker_cache.tags.pwrStateResidencyTicks::UNDEFINED  88188498000                       # Cumulative time (in ticks) in various power states
system.cpu.itb_walker_cache.tags.tagsinuse            0                       # Cycle average of tags in use
system.cpu.itb_walker_cache.tags.total_refs            0                       # Total number of references to valid blocks.
system.cpu.itb_walker_cache.tags.sampled_refs            0                       # Sample count of references to valid blocks.
system.cpu.itb_walker_cache.tags.avg_refs          nan                       # Average number of references to valid blocks.
system.cpu.itb_walker_cache.tags.warmup_cycle            0                       # Cycle when the warmup percentage was hit.
system.cpu.itb_walker_cache.tags.tag_accesses            0                       # Number of tag accesses
system.cpu.itb_walker_cache.tags.data_accesses            0                       # Number of data accesses
system.cpu.itb_walker_cache.pwrStateResidencyTicks::UNDEFINED  88188498000                       # Cumulative time (in ticks) in various power states
system.cpu.itb_walker_cache.blocked_cycles::no_mshrs            0                       # number of cycles access was blocked
system.cpu.itb_walker_cache.blocked_cycles::no_targets            0                       # number of cycles access was blocked
system.cpu.itb_walker_cache.blocked::no_mshrs            0                       # number of cycles access was blocked
system.cpu.itb_walker_cache.blocked::no_targets            0                       # number of cycles access was blocked
system.cpu.itb_walker_cache.avg_blocked_cycles::no_mshrs          nan                       # average number of cycles each access was blocked
system.cpu.itb_walker_cache.avg_blocked_cycles::no_targets          nan                       # average number of cycles each access was blocked
system.cpu.itb_walker_cache.replacements            0                       # number of replacements
system.l2.tags.pwrStateResidencyTicks::UNDEFINED  88188498000                       # Cumulative time (in ticks) in various power states
system.l2.tags.tagsinuse                  2018.780893                       # Cycle average of tags in use
system.l2.tags.total_refs                       88135                       # Total number of references to valid blocks.
system.l2.tags.sampled_refs                     33509                       # Sample count of references to valid blocks.
system.l2.tags.avg_refs                      2.630189                       # Average number of references to valid blocks.
system.l2.tags.warmup_cycle                    434500                       # Cycle when the warmup percentage was hit.
system.l2.tags.occ_blocks::writebacks      472.632247                       # Average occupied blocks per requestor
system.l2.tags.occ_blocks::cpu.inst         11.112123                       # Average occupied blocks per requestor
system.l2.tags.occ_blocks::cpu.data       1535.036523                       # Average occupied blocks per requestor
system.l2.tags.occ_percent::writebacks       0.230777                       # Average percentage of cache occupancy
system.l2.tags.occ_percent::cpu.inst         0.005426                       # Average percentage of cache occupancy
system.l2.tags.occ_percent::cpu.data         0.749530                       # Average percentage of cache occupancy
system.l2.tags.occ_percent::total            0.985733                       # Average percentage of cache occupancy
system.l2.tags.occ_task_id_blocks::1024          2048                       # Occupied blocks per task id
system.l2.tags.age_task_id_blocks_1024::0           61                       # Occupied blocks per task id
system.l2.tags.age_task_id_blocks_1024::1           28                       # Occupied blocks per task id
system.l2.tags.age_task_id_blocks_1024::2           34                       # Occupied blocks per task id
system.l2.tags.age_task_id_blocks_1024::3           57                       # Occupied blocks per task id
system.l2.tags.age_task_id_blocks_1024::4         1868                       # Occupied blocks per task id
system.l2.tags.occ_task_id_percent::1024            1                       # Percentage of cache occupancy per task id
system.l2.tags.tag_accesses                    741885                       # Number of tag accesses
system.l2.tags.data_accesses                   741885                       # Number of data accesses
system.l2.pwrStateResidencyTicks::UNDEFINED  88188498000                       # Cumulative time (in ticks) in various power states
system.l2.WritebackDirty_hits::writebacks        34711                       # number of WritebackDirty hits
system.l2.WritebackDirty_hits::total            34711                       # number of WritebackDirty hits
system.l2.WritebackClean_hits::writebacks           43                       # number of WritebackClean hits
system.l2.WritebackClean_hits::total               43                       # number of WritebackClean hits
system.l2.UpgradeReq_hits::cpu.data             15369                       # number of UpgradeReq hits
system.l2.UpgradeReq_hits::total                15369                       # number of UpgradeReq hits
system.l2.ReadExReq_hits::cpu.data                152                       # number of ReadExReq hits
system.l2.ReadExReq_hits::total                   152                       # number of ReadExReq hits
system.l2.ReadSharedReq_hits::cpu.data          13238                       # number of ReadSharedReq hits
system.l2.ReadSharedReq_hits::total             13238                       # number of ReadSharedReq hits
system.l2.demand_hits::cpu.data                 13390                       # number of demand (read+write) hits
system.l2.demand_hits::total                    13390                       # number of demand (read+write) hits
system.l2.overall_hits::cpu.data                13390                       # number of overall hits
system.l2.overall_hits::total                   13390                       # number of overall hits
system.l2.UpgradeReq_misses::cpu.data              15                       # number of UpgradeReq misses
system.l2.UpgradeReq_misses::total                 15                       # number of UpgradeReq misses
system.l2.ReadExReq_misses::cpu.data             6442                       # number of ReadExReq misses
system.l2.ReadExReq_misses::total                6442                       # number of ReadExReq misses
system.l2.ReadCleanReq_misses::cpu.inst           352                       # number of ReadCleanReq misses
system.l2.ReadCleanReq_misses::total              352                       # number of ReadCleanReq misses
system.l2.ReadSharedReq_misses::cpu.data        17064                       # number of ReadSharedReq misses
system.l2.ReadSharedReq_misses::total           17064                       # number of ReadSharedReq misses
system.l2.demand_misses::cpu.inst                 352                       # number of demand (read+write) misses
system.l2.demand_misses::cpu.data               23506                       # number of demand (read+write) misses
system.l2.demand_misses::total                  23858                       # number of demand (read+write) misses
system.l2.overall_misses::cpu.inst                352                       # number of overall misses
system.l2.overall_misses::cpu.data              23506                       # number of overall misses
system.l2.overall_misses::total                 23858                       # number of overall misses
system.l2.ReadExReq_miss_latency::cpu.data    751050500                       # number of ReadExReq miss cycles
system.l2.ReadExReq_miss_latency::total     751050500                       # number of ReadExReq miss cycles
system.l2.ReadCleanReq_miss_latency::cpu.inst     56803000                       # number of ReadCleanReq miss cycles
system.l2.ReadCleanReq_miss_latency::total     56803000                       # number of ReadCleanReq miss cycles
system.l2.ReadSharedReq_miss_latency::cpu.data    788020000                       # number of ReadSharedReq miss cycles
system.l2.ReadSharedReq_miss_latency::total    788020000                       # number of ReadSharedReq miss cycles
system.l2.demand_miss_latency::cpu.inst      56803000                       # number of demand (read+write) miss cycles
system.l2.demand_miss_latency::cpu.data    1539070500                       # number of demand (read+write) miss cycles
system.l2.demand_miss_latency::total       1595873500                       # number of demand (read+write) miss cycles
system.l2.overall_miss_latency::cpu.inst     56803000                       # number of overall miss cycles
system.l2.overall_miss_latency::cpu.data   1539070500                       # number of overall miss cycles
system.l2.overall_miss_latency::total      1595873500                       # number of overall miss cycles
system.l2.WritebackDirty_accesses::writebacks        34711                       # number of WritebackDirty accesses(hits+misses)
system.l2.WritebackDirty_accesses::total        34711                       # number of WritebackDirty accesses(hits+misses)
system.l2.WritebackClean_accesses::writebacks           43                       # number of WritebackClean accesses(hits+misses)
system.l2.WritebackClean_accesses::total           43                       # number of WritebackClean accesses(hits+misses)
system.l2.UpgradeReq_accesses::cpu.data         15384                       # number of UpgradeReq accesses(hits+misses)
system.l2.UpgradeReq_accesses::total            15384                       # number of UpgradeReq accesses(hits+misses)
system.l2.ReadExReq_accesses::cpu.data           6594                       # number of ReadExReq accesses(hits+misses)
system.l2.ReadExReq_accesses::total              6594                       # number of ReadExReq accesses(hits+misses)
system.l2.ReadCleanReq_accesses::cpu.inst          352                       # number of ReadCleanReq accesses(hits+misses)
system.l2.ReadCleanReq_accesses::total            352                       # number of ReadCleanReq accesses(hits+misses)
system.l2.ReadSharedReq_accesses::cpu.data        30302                       # number of ReadSharedReq accesses(hits+misses)
system.l2.ReadSharedReq_accesses::total         30302                       # number of ReadSharedReq accesses(hits+misses)
system.l2.demand_accesses::cpu.inst               352                       # number of demand (read+write) accesses
system.l2.demand_accesses::cpu.data             36896                       # number of demand (read+write) accesses
system.l2.demand_accesses::total                37248                       # number of demand (read+write) accesses
system.l2.overall_accesses::cpu.inst              352                       # number of overall (read+write) accesses
system.l2.overall_accesses::cpu.data            36896                       # number of overall (read+write) accesses
system.l2.overall_accesses::total               37248                       # number of overall (read+write) accesses
system.l2.UpgradeReq_miss_rate::cpu.data     0.000975                       # miss rate for UpgradeReq accesses
system.l2.UpgradeReq_miss_rate::total        0.000975                       # miss rate for UpgradeReq accesses
system.l2.ReadExReq_miss_rate::cpu.data      0.976949                       # miss rate for ReadExReq accesses
system.l2.ReadExReq_miss_rate::total         0.976949                       # miss rate for ReadExReq accesses
system.l2.ReadCleanReq_miss_rate::cpu.inst            1                       # miss rate for ReadCleanReq accesses
system.l2.ReadCleanReq_miss_rate::total             1                       # miss rate for ReadCleanReq accesses
system.l2.ReadSharedReq_miss_rate::cpu.data     0.563131                       # miss rate for ReadSharedReq accesses
system.l2.ReadSharedReq_miss_rate::total     0.563131                       # miss rate for ReadSharedReq accesses
system.l2.demand_miss_rate::cpu.inst                1                       # miss rate for demand accesses
system.l2.demand_miss_rate::cpu.data         0.637088                       # miss rate for demand accesses
system.l2.demand_miss_rate::total            0.640518                       # miss rate for demand accesses
system.l2.overall_miss_rate::cpu.inst               1                       # miss rate for overall accesses
system.l2.overall_miss_rate::cpu.data        0.637088                       # miss rate for overall accesses
system.l2.overall_miss_rate::total           0.640518                       # miss rate for overall accesses
system.l2.ReadExReq_avg_miss_latency::cpu.data 116586.541447                       # average ReadExReq miss latency
system.l2.ReadExReq_avg_miss_latency::total 116586.541447                       # average ReadExReq miss latency
system.l2.ReadCleanReq_avg_miss_latency::cpu.inst 161372.159091                       # average ReadCleanReq miss latency
system.l2.ReadCleanReq_avg_miss_latency::total 161372.159091                       # average ReadCleanReq miss latency
system.l2.ReadSharedReq_avg_miss_latency::cpu.data 46180.262541                       # average ReadSharedReq miss latency
system.l2.ReadSharedReq_avg_miss_latency::total 46180.262541                       # average ReadSharedReq miss latency
system.l2.demand_avg_miss_latency::cpu.inst 161372.159091                       # average overall miss latency
system.l2.demand_avg_miss_latency::cpu.data 65475.644516                       # average overall miss latency
system.l2.demand_avg_miss_latency::total 66890.497946                       # average overall miss latency
system.l2.overall_avg_miss_latency::cpu.inst 161372.159091                       # average overall miss latency
system.l2.overall_avg_miss_latency::cpu.data 65475.644516                       # average overall miss latency
system.l2.overall_avg_miss_latency::total 66890.497946                       # average overall miss latency
system.l2.blocked_cycles::no_mshrs                  0                       # number of cycles access was blocked
system.l2.blocked_cycles::no_targets                0                       # number of cycles access was blocked
system.l2.blocked::no_mshrs                         0                       # number of cycles access was blocked
system.l2.blocked::no_targets                       0                       # number of cycles access was blocked
system.l2.avg_blocked_cycles::no_mshrs            nan                       # average number of cycles each access was blocked
system.l2.avg_blocked_cycles::no_targets          nan                       # average number of cycles each access was blocked
system.l2.writebacks::writebacks                21360                       # number of writebacks
system.l2.writebacks::total                     21360                       # number of writebacks
system.l2.CleanEvict_mshr_misses::writebacks          397                       # number of CleanEvict MSHR misses
system.l2.CleanEvict_mshr_misses::total           397                       # number of CleanEvict MSHR misses
system.l2.UpgradeReq_mshr_misses::cpu.data           15                       # number of UpgradeReq MSHR misses
system.l2.UpgradeReq_mshr_misses::total            15                       # number of UpgradeReq MSHR misses
system.l2.ReadExReq_mshr_misses::cpu.data         6442                       # number of ReadExReq MSHR misses
system.l2.ReadExReq_mshr_misses::total           6442                       # number of ReadExReq MSHR misses
system.l2.ReadCleanReq_mshr_misses::cpu.inst          352                       # number of ReadCleanReq MSHR misses
system.l2.ReadCleanReq_mshr_misses::total          352                       # number of ReadCleanReq MSHR misses
system.l2.ReadSharedReq_mshr_misses::cpu.data        17064                       # number of ReadSharedReq MSHR misses
system.l2.ReadSharedReq_mshr_misses::total        17064                       # number of ReadSharedReq MSHR misses
system.l2.demand_mshr_misses::cpu.inst            352                       # number of demand (read+write) MSHR misses
system.l2.demand_mshr_misses::cpu.data          23506                       # number of demand (read+write) MSHR misses
system.l2.demand_mshr_misses::total             23858                       # number of demand (read+write) MSHR misses
system.l2.overall_mshr_misses::cpu.inst           352                       # number of overall MSHR misses
system.l2.overall_mshr_misses::cpu.data         23506                       # number of overall MSHR misses
system.l2.overall_mshr_misses::total            23858                       # number of overall MSHR misses
system.l2.UpgradeReq_mshr_miss_latency::cpu.data       412500                       # number of UpgradeReq MSHR miss cycles
system.l2.UpgradeReq_mshr_miss_latency::total       412500                       # number of UpgradeReq MSHR miss cycles
system.l2.ReadExReq_mshr_miss_latency::cpu.data    686630500                       # number of ReadExReq MSHR miss cycles
system.l2.ReadExReq_mshr_miss_latency::total    686630500                       # number of ReadExReq MSHR miss cycles
system.l2.ReadCleanReq_mshr_miss_latency::cpu.inst     53283000                       # number of ReadCleanReq MSHR miss cycles
system.l2.ReadCleanReq_mshr_miss_latency::total     53283000                       # number of ReadCleanReq MSHR miss cycles
system.l2.ReadSharedReq_mshr_miss_latency::cpu.data    617380000                       # number of ReadSharedReq MSHR miss cycles
system.l2.ReadSharedReq_mshr_miss_latency::total    617380000                       # number of ReadSharedReq MSHR miss cycles
system.l2.demand_mshr_miss_latency::cpu.inst     53283000                       # number of demand (read+write) MSHR miss cycles
system.l2.demand_mshr_miss_latency::cpu.data   1304010500                       # number of demand (read+write) MSHR miss cycles
system.l2.demand_mshr_miss_latency::total   1357293500                       # number of demand (read+write) MSHR miss cycles
system.l2.overall_mshr_miss_latency::cpu.inst     53283000                       # number of overall MSHR miss cycles
system.l2.overall_mshr_miss_latency::cpu.data   1304010500                       # number of overall MSHR miss cycles
system.l2.overall_mshr_miss_latency::total   1357293500                       # number of overall MSHR miss cycles
system.l2.CleanEvict_mshr_miss_rate::writebacks          inf                       # mshr miss rate for CleanEvict accesses
system.l2.CleanEvict_mshr_miss_rate::total          inf                       # mshr miss rate for CleanEvict accesses
system.l2.UpgradeReq_mshr_miss_rate::cpu.data     0.000975                       # mshr miss rate for UpgradeReq accesses
system.l2.UpgradeReq_mshr_miss_rate::total     0.000975                       # mshr miss rate for UpgradeReq accesses
system.l2.ReadExReq_mshr_miss_rate::cpu.data     0.976949                       # mshr miss rate for ReadExReq accesses
system.l2.ReadExReq_mshr_miss_rate::total     0.976949                       # mshr miss rate for ReadExReq accesses
system.l2.ReadCleanReq_mshr_miss_rate::cpu.inst            1                       # mshr miss rate for ReadCleanReq accesses
system.l2.ReadCleanReq_mshr_miss_rate::total            1                       # mshr miss rate for ReadCleanReq accesses
system.l2.ReadSharedReq_mshr_miss_rate::cpu.data     0.563131                       # mshr miss rate for ReadSharedReq accesses
system.l2.ReadSharedReq_mshr_miss_rate::total     0.563131                       # mshr miss rate for ReadSharedReq accesses
system.l2.demand_mshr_miss_rate::cpu.inst            1                       # mshr miss rate for demand accesses
system.l2.demand_mshr_miss_rate::cpu.data     0.637088                       # mshr miss rate for demand accesses
system.l2.demand_mshr_miss_rate::total       0.640518                       # mshr miss rate for demand accesses
system.l2.overall_mshr_miss_rate::cpu.inst            1                       # mshr miss rate for overall accesses
system.l2.overall_mshr_miss_rate::cpu.data     0.637088                       # mshr miss rate for overall accesses
system.l2.overall_mshr_miss_rate::total      0.640518                       # mshr miss rate for overall accesses
system.l2.UpgradeReq_avg_mshr_miss_latency::cpu.data        27500                       # average UpgradeReq mshr miss latency
system.l2.UpgradeReq_avg_mshr_miss_latency::total        27500                       # average UpgradeReq mshr miss latency
system.l2.ReadExReq_avg_mshr_miss_latency::cpu.data 106586.541447                       # average ReadExReq mshr miss latency
system.l2.ReadExReq_avg_mshr_miss_latency::total 106586.541447                       # average ReadExReq mshr miss latency
system.l2.ReadCleanReq_avg_mshr_miss_latency::cpu.inst 151372.159091                       # average ReadCleanReq mshr miss latency
system.l2.ReadCleanReq_avg_mshr_miss_latency::total 151372.159091                       # average ReadCleanReq mshr miss latency
system.l2.ReadSharedReq_avg_mshr_miss_latency::cpu.data 36180.262541                       # average ReadSharedReq mshr miss latency
system.l2.ReadSharedReq_avg_mshr_miss_latency::total 36180.262541                       # average ReadSharedReq mshr miss latency
system.l2.demand_avg_mshr_miss_latency::cpu.inst 151372.159091                       # average overall mshr miss latency
system.l2.demand_avg_mshr_miss_latency::cpu.data 55475.644516                       # average overall mshr miss latency
system.l2.demand_avg_mshr_miss_latency::total 56890.497946                       # average overall mshr miss latency
system.l2.overall_avg_mshr_miss_latency::cpu.inst 151372.159091                       # average overall mshr miss latency
system.l2.overall_avg_mshr_miss_latency::cpu.data 55475.644516                       # average overall mshr miss latency
system.l2.overall_avg_mshr_miss_latency::total 56890.497946                       # average overall mshr miss latency
system.l2.replacements                          31461                       # number of replacements
system.l3.tags.pwrStateResidencyTicks::UNDEFINED  88188498000                       # Cumulative time (in ticks) in various power states
system.l3.tags.tagsinuse                  5965.089008                       # Cycle average of tags in use
system.l3.tags.total_refs                       45724                       # Total number of references to valid blocks.
system.l3.tags.sampled_refs                      7953                       # Sample count of references to valid blocks.
system.l3.tags.avg_refs                      5.749277                       # Average number of references to valid blocks.
system.l3.tags.warmup_cycle                    418000                       # Cycle when the warmup percentage was hit.
system.l3.tags.occ_blocks::writebacks       55.692562                       # Average occupied blocks per requestor
system.l3.tags.occ_blocks::cpu.inst        212.804141                       # Average occupied blocks per requestor
system.l3.tags.occ_blocks::cpu.data       5696.592305                       # Average occupied blocks per requestor
system.l3.tags.occ_percent::writebacks       0.006798                       # Average percentage of cache occupancy
system.l3.tags.occ_percent::cpu.inst         0.025977                       # Average percentage of cache occupancy
system.l3.tags.occ_percent::cpu.data         0.695385                       # Average percentage of cache occupancy
system.l3.tags.occ_percent::total            0.728160                       # Average percentage of cache occupancy
system.l3.tags.occ_task_id_blocks::1024          6407                       # Occupied blocks per task id
system.l3.tags.age_task_id_blocks_1024::0           54                       # Occupied blocks per task id
system.l3.tags.age_task_id_blocks_1024::1           20                       # Occupied blocks per task id
system.l3.tags.age_task_id_blocks_1024::3            5                       # Occupied blocks per task id
system.l3.tags.age_task_id_blocks_1024::4         6328                       # Occupied blocks per task id
system.l3.tags.occ_task_id_percent::1024     0.782104                       # Percentage of cache occupancy per task id
system.l3.tags.tag_accesses                     99417                       # Number of tag accesses
system.l3.tags.data_accesses                    99417                       # Number of data accesses
system.l3.pwrStateResidencyTicks::UNDEFINED  88188498000                       # Cumulative time (in ticks) in various power states
system.l3.WritebackDirty_hits::writebacks        21360                       # number of WritebackDirty hits
system.l3.WritebackDirty_hits::total            21360                       # number of WritebackDirty hits
system.l3.UpgradeReq_hits::cpu.data                15                       # number of UpgradeReq hits
system.l3.UpgradeReq_hits::total                   15                       # number of UpgradeReq hits
system.l3.ReadExReq_hits::cpu.data                 45                       # number of ReadExReq hits
system.l3.ReadExReq_hits::total                    45                       # number of ReadExReq hits
system.l3.ReadSharedReq_hits::cpu.data          16465                       # number of ReadSharedReq hits
system.l3.ReadSharedReq_hits::total             16465                       # number of ReadSharedReq hits
system.l3.demand_hits::cpu.data                 16510                       # number of demand (read+write) hits
system.l3.demand_hits::total                    16510                       # number of demand (read+write) hits
system.l3.overall_hits::cpu.data                16510                       # number of overall hits
system.l3.overall_hits::total                   16510                       # number of overall hits
system.l3.ReadExReq_misses::cpu.data             6397                       # number of ReadExReq misses
system.l3.ReadExReq_misses::total                6397                       # number of ReadExReq misses
system.l3.ReadSharedReq_misses::cpu.inst          352                       # number of ReadSharedReq misses
system.l3.ReadSharedReq_misses::cpu.data          599                       # number of ReadSharedReq misses
system.l3.ReadSharedReq_misses::total             951                       # number of ReadSharedReq misses
system.l3.demand_misses::cpu.inst                 352                       # number of demand (read+write) misses
system.l3.demand_misses::cpu.data                6996                       # number of demand (read+write) misses
system.l3.demand_misses::total                   7348                       # number of demand (read+write) misses
system.l3.overall_misses::cpu.inst                352                       # number of overall misses
system.l3.overall_misses::cpu.data               6996                       # number of overall misses
system.l3.overall_misses::total                  7348                       # number of overall misses
system.l3.ReadExReq_miss_latency::cpu.data    615026000                       # number of ReadExReq miss cycles
system.l3.ReadExReq_miss_latency::total     615026000                       # number of ReadExReq miss cycles
system.l3.ReadSharedReq_miss_latency::cpu.inst     49411000                       # number of ReadSharedReq miss cycles
system.l3.ReadSharedReq_miss_latency::cpu.data    158003500                       # number of ReadSharedReq miss cycles
system.l3.ReadSharedReq_miss_latency::total    207414500                       # number of ReadSharedReq miss cycles
system.l3.demand_miss_latency::cpu.inst      49411000                       # number of demand (read+write) miss cycles
system.l3.demand_miss_latency::cpu.data     773029500                       # number of demand (read+write) miss cycles
system.l3.demand_miss_latency::total        822440500                       # number of demand (read+write) miss cycles
system.l3.overall_miss_latency::cpu.inst     49411000                       # number of overall miss cycles
system.l3.overall_miss_latency::cpu.data    773029500                       # number of overall miss cycles
system.l3.overall_miss_latency::total       822440500                       # number of overall miss cycles
system.l3.WritebackDirty_accesses::writebacks        21360                       # number of WritebackDirty accesses(hits+misses)
system.l3.WritebackDirty_accesses::total        21360                       # number of WritebackDirty accesses(hits+misses)
system.l3.UpgradeReq_accesses::cpu.data            15                       # number of UpgradeReq accesses(hits+misses)
system.l3.UpgradeReq_accesses::total               15                       # number of UpgradeReq accesses(hits+misses)
system.l3.ReadExReq_accesses::cpu.data           6442                       # number of ReadExReq accesses(hits+misses)
system.l3.ReadExReq_accesses::total              6442                       # number of ReadExReq accesses(hits+misses)
system.l3.ReadSharedReq_accesses::cpu.inst          352                       # number of ReadSharedReq accesses(hits+misses)
system.l3.ReadSharedReq_accesses::cpu.data        17064                       # number of ReadSharedReq accesses(hits+misses)
system.l3.ReadSharedReq_accesses::total         17416                       # number of ReadSharedReq accesses(hits+misses)
system.l3.demand_accesses::cpu.inst               352                       # number of demand (read+write) accesses
system.l3.demand_accesses::cpu.data             23506                       # number of demand (read+write) accesses
system.l3.demand_accesses::total                23858                       # number of demand (read+write) accesses
system.l3.overall_accesses::cpu.inst              352                       # number of overall (read+write) accesses
system.l3.overall_accesses::cpu.data            23506                       # number of overall (read+write) accesses
system.l3.overall_accesses::total               23858                       # number of overall (read+write) accesses
system.l3.ReadExReq_miss_rate::cpu.data      0.993015                       # miss rate for ReadExReq accesses
system.l3.ReadExReq_miss_rate::total         0.993015                       # miss rate for ReadExReq accesses
system.l3.ReadSharedReq_miss_rate::cpu.inst            1                       # miss rate for ReadSharedReq accesses
system.l3.ReadSharedReq_miss_rate::cpu.data     0.035103                       # miss rate for ReadSharedReq accesses
system.l3.ReadSharedReq_miss_rate::total     0.054605                       # miss rate for ReadSharedReq accesses
system.l3.demand_miss_rate::cpu.inst                1                       # miss rate for demand accesses
system.l3.demand_miss_rate::cpu.data         0.297626                       # miss rate for demand accesses
system.l3.demand_miss_rate::total            0.307989                       # miss rate for demand accesses
system.l3.overall_miss_rate::cpu.inst               1                       # miss rate for overall accesses
system.l3.overall_miss_rate::cpu.data        0.297626                       # miss rate for overall accesses
system.l3.overall_miss_rate::total           0.307989                       # miss rate for overall accesses
system.l3.ReadExReq_avg_miss_latency::cpu.data 96142.879475                       # average ReadExReq miss latency
system.l3.ReadExReq_avg_miss_latency::total 96142.879475                       # average ReadExReq miss latency
system.l3.ReadSharedReq_avg_miss_latency::cpu.inst 140372.159091                       # average ReadSharedReq miss latency
system.l3.ReadSharedReq_avg_miss_latency::cpu.data 263778.797997                       # average ReadSharedReq miss latency
system.l3.ReadSharedReq_avg_miss_latency::total 218101.472135                       # average ReadSharedReq miss latency
system.l3.demand_avg_miss_latency::cpu.inst 140372.159091                       # average overall miss latency
system.l3.demand_avg_miss_latency::cpu.data 110495.926244                       # average overall miss latency
system.l3.demand_avg_miss_latency::total 111927.123027                       # average overall miss latency
system.l3.overall_avg_miss_latency::cpu.inst 140372.159091                       # average overall miss latency
system.l3.overall_avg_miss_latency::cpu.data 110495.926244                       # average overall miss latency
system.l3.overall_avg_miss_latency::total 111927.123027                       # average overall miss latency
system.l3.blocked_cycles::no_mshrs                  0                       # number of cycles access was blocked
system.l3.blocked_cycles::no_targets                0                       # number of cycles access was blocked
system.l3.blocked::no_mshrs                         0                       # number of cycles access was blocked
system.l3.blocked::no_targets                       0                       # number of cycles access was blocked
system.l3.avg_blocked_cycles::no_mshrs            nan                       # average number of cycles each access was blocked
system.l3.avg_blocked_cycles::no_targets          nan                       # average number of cycles each access was blocked
system.l3.writebacks::writebacks                  633                       # number of writebacks
system.l3.writebacks::total                       633                       # number of writebacks
system.l3.CleanEvict_mshr_misses::writebacks            8                       # number of CleanEvict MSHR misses
system.l3.CleanEvict_mshr_misses::total             8                       # number of CleanEvict MSHR misses
system.l3.ReadExReq_mshr_misses::cpu.data         6397                       # number of ReadExReq MSHR misses
system.l3.ReadExReq_mshr_misses::total           6397                       # number of ReadExReq MSHR misses
system.l3.ReadSharedReq_mshr_misses::cpu.inst          352                       # number of ReadSharedReq MSHR misses
system.l3.ReadSharedReq_mshr_misses::cpu.data          599                       # number of ReadSharedReq MSHR misses
system.l3.ReadSharedReq_mshr_misses::total          951                       # number of ReadSharedReq MSHR misses
system.l3.demand_mshr_misses::cpu.inst            352                       # number of demand (read+write) MSHR misses
system.l3.demand_mshr_misses::cpu.data           6996                       # number of demand (read+write) MSHR misses
system.l3.demand_mshr_misses::total              7348                       # number of demand (read+write) MSHR misses
system.l3.overall_mshr_misses::cpu.inst           352                       # number of overall MSHR misses
system.l3.overall_mshr_misses::cpu.data          6996                       # number of overall MSHR misses
system.l3.overall_mshr_misses::total             7348                       # number of overall MSHR misses
system.l3.ReadExReq_mshr_miss_latency::cpu.data    512674000                       # number of ReadExReq MSHR miss cycles
system.l3.ReadExReq_mshr_miss_latency::total    512674000                       # number of ReadExReq MSHR miss cycles
system.l3.ReadSharedReq_mshr_miss_latency::cpu.inst     43779000                       # number of ReadSharedReq MSHR miss cycles
system.l3.ReadSharedReq_mshr_miss_latency::cpu.data    148419500                       # number of ReadSharedReq MSHR miss cycles
system.l3.ReadSharedReq_mshr_miss_latency::total    192198500                       # number of ReadSharedReq MSHR miss cycles
system.l3.demand_mshr_miss_latency::cpu.inst     43779000                       # number of demand (read+write) MSHR miss cycles
system.l3.demand_mshr_miss_latency::cpu.data    661093500                       # number of demand (read+write) MSHR miss cycles
system.l3.demand_mshr_miss_latency::total    704872500                       # number of demand (read+write) MSHR miss cycles
system.l3.overall_mshr_miss_latency::cpu.inst     43779000                       # number of overall MSHR miss cycles
system.l3.overall_mshr_miss_latency::cpu.data    661093500                       # number of overall MSHR miss cycles
system.l3.overall_mshr_miss_latency::total    704872500                       # number of overall MSHR miss cycles
system.l3.CleanEvict_mshr_miss_rate::writebacks          inf                       # mshr miss rate for CleanEvict accesses
system.l3.CleanEvict_mshr_miss_rate::total          inf                       # mshr miss rate for CleanEvict accesses
system.l3.ReadExReq_mshr_miss_rate::cpu.data     0.993015                       # mshr miss rate for ReadExReq accesses
system.l3.ReadExReq_mshr_miss_rate::total     0.993015                       # mshr miss rate for ReadExReq accesses
system.l3.ReadSharedReq_mshr_miss_rate::cpu.inst            1                       # mshr miss rate for ReadSharedReq accesses
system.l3.ReadSharedReq_mshr_miss_rate::cpu.data     0.035103                       # mshr miss rate for ReadSharedReq accesses
system.l3.ReadSharedReq_mshr_miss_rate::total     0.054605                       # mshr miss rate for ReadSharedReq accesses
system.l3.demand_mshr_miss_rate::cpu.inst            1                       # mshr miss rate for demand accesses
system.l3.demand_mshr_miss_rate::cpu.data     0.297626                       # mshr miss rate for demand accesses
system.l3.demand_mshr_miss_rate::total       0.307989                       # mshr miss rate for demand accesses
system.l3.overall_mshr_miss_rate::cpu.inst            1                       # mshr miss rate for overall accesses
system.l3.overall_mshr_miss_rate::cpu.data     0.297626                       # mshr miss rate for overall accesses
system.l3.overall_mshr_miss_rate::total      0.307989                       # mshr miss rate for overall accesses
system.l3.ReadExReq_avg_mshr_miss_latency::cpu.data 80142.879475                       # average ReadExReq mshr miss latency
system.l3.ReadExReq_avg_mshr_miss_latency::total 80142.879475                       # average ReadExReq mshr miss latency
system.l3.ReadSharedReq_avg_mshr_miss_latency::cpu.inst 124372.159091                       # average ReadSharedReq mshr miss latency
system.l3.ReadSharedReq_avg_mshr_miss_latency::cpu.data 247778.797997                       # average ReadSharedReq mshr miss latency
system.l3.ReadSharedReq_avg_mshr_miss_latency::total 202101.472135                       # average ReadSharedReq mshr miss latency
system.l3.demand_avg_mshr_miss_latency::cpu.inst 124372.159091                       # average overall mshr miss latency
system.l3.demand_avg_mshr_miss_latency::cpu.data 94495.926244                       # average overall mshr miss latency
system.l3.demand_avg_mshr_miss_latency::total 95927.123027                       # average overall mshr miss latency
system.l3.overall_avg_mshr_miss_latency::cpu.inst 124372.159091                       # average overall mshr miss latency
system.l3.overall_avg_mshr_miss_latency::cpu.data 94495.926244                       # average overall mshr miss latency
system.l3.overall_avg_mshr_miss_latency::total 95927.123027                       # average overall mshr miss latency
system.l3.replacements                           1546                       # number of replacements
system.membus.snoop_filter.tot_requests          8183                       # Total number of requests made to the snoop filter.
system.membus.snoop_filter.hit_single_requests          835                       # Number of requests hitting in the snoop filter with a single holder of the requested data.
system.membus.snoop_filter.hit_multi_requests            0                       # Number of requests hitting in the snoop filter with multiple (>1) holders of the requested data.
system.membus.snoop_filter.tot_snoops               0                       # Total number of snoops made to the snoop filter.
system.membus.snoop_filter.hit_single_snoops            0                       # Number of snoops hitting in the snoop filter with a single holder of the requested data.
system.membus.snoop_filter.hit_multi_snoops            0                       # Number of snoops hitting in the snoop filter with multiple (>1) holders of the requested data.
system.membus.pwrStateResidencyTicks::UNDEFINED  88188498000                       # Cumulative time (in ticks) in various power states
system.membus.trans_dist::ReadResp                951                       # Transaction distribution
system.membus.trans_dist::WritebackDirty          633                       # Transaction distribution
system.membus.trans_dist::CleanEvict               81                       # Transaction distribution
system.membus.trans_dist::ReadExReq              6397                       # Transaction distribution
system.membus.trans_dist::ReadExResp             6397                       # Transaction distribution
system.membus.trans_dist::ReadSharedReq           951                       # Transaction distribution
system.membus.pkt_count_system.l3.mem_side::system.mem_ctrls.port        15410                       # Packet count per connected master and slave (bytes)
system.membus.pkt_count_system.l3.mem_side::total        15410                       # Packet count per connected master and slave (bytes)
system.membus.pkt_count::total                  15410                       # Packet count per connected master and slave (bytes)
system.membus.pkt_size_system.l3.mem_side::system.mem_ctrls.port       510784                       # Cumulative packet size per connected master and slave (bytes)
system.membus.pkt_size_system.l3.mem_side::total       510784                       # Cumulative packet size per connected master and slave (bytes)
system.membus.pkt_size::total                  510784                       # Cumulative packet size per connected master and slave (bytes)
system.membus.snoops                                0                       # Total snoops (count)
system.membus.snoopTraffic                          0                       # Total snoop traffic (bytes)
system.membus.snoop_fanout::samples              7348                       # Request fanout histogram
system.membus.snoop_fanout::mean                    0                       # Request fanout histogram
system.membus.snoop_fanout::stdev                   0                       # Request fanout histogram
system.membus.snoop_fanout::underflows              0      0.00%      0.00% # Request fanout histogram
system.membus.snoop_fanout::0                    7348    100.00%    100.00% # Request fanout histogram
system.membus.snoop_fanout::1                       0      0.00%    100.00% # Request fanout histogram
system.membus.snoop_fanout::overflows               0      0.00%    100.00% # Request fanout histogram
system.membus.snoop_fanout::min_value               0                       # Request fanout histogram
system.membus.snoop_fanout::max_value               0                       # Request fanout histogram
system.membus.snoop_fanout::total                7348                       # Request fanout histogram
system.membus.reqLayer2.occupancy            10718500                       # Layer occupancy (ticks)
system.membus.reqLayer2.utilization               0.0                       # Layer utilization (%)
system.membus.respLayer1.occupancy           36743500                       # Layer occupancy (ticks)
system.membus.respLayer1.utilization              0.0                       # Layer utilization (%)
system.tol2bus.snoop_filter.tot_requests        88547                       # Total number of requests made to the snoop filter.
system.tol2bus.snoop_filter.hit_single_requests        51299                       # Number of requests hitting in the snoop filter with a single holder of the requested data.
system.tol2bus.snoop_filter.hit_multi_requests            0                       # Number of requests hitting in the snoop filter with multiple (>1) holders of the requested data.
system.tol2bus.snoop_filter.tot_snoops          10901                       # Total number of snoops made to the snoop filter.
system.tol2bus.snoop_filter.hit_single_snoops        10901                       # Number of snoops hitting in the snoop filter with a single holder of the requested data.
system.tol2bus.snoop_filter.hit_multi_snoops            0                       # Number of snoops hitting in the snoop filter with multiple (>1) holders of the requested data.
system.tol2bus.pwrStateResidencyTicks::UNDEFINED  88188498000                       # Cumulative time (in ticks) in various power states
system.tol2bus.trans_dist::ReadResp             30654                       # Transaction distribution
system.tol2bus.trans_dist::WritebackDirty        56704                       # Transaction distribution
system.tol2bus.trans_dist::WritebackClean           43                       # Transaction distribution
system.tol2bus.trans_dist::CleanEvict           12175                       # Transaction distribution
system.tol2bus.trans_dist::UpgradeReq           15384                       # Transaction distribution
system.tol2bus.trans_dist::UpgradeResp          15384                       # Transaction distribution
system.tol2bus.trans_dist::ReadExReq             6594                       # Transaction distribution
system.tol2bus.trans_dist::ReadExResp            6594                       # Transaction distribution
system.tol2bus.trans_dist::ReadCleanReq           352                       # Transaction distribution
system.tol2bus.trans_dist::ReadSharedReq        30302                       # Transaction distribution
system.tol2bus.pkt_count_system.cpu.icache.mem_side::system.l2.cpu_side          747                       # Packet count per connected master and slave (bytes)
system.tol2bus.pkt_count_system.cpu.dcache.mem_side::system.l2.cpu_side       140432                       # Packet count per connected master and slave (bytes)
system.tol2bus.pkt_count::total                141179                       # Packet count per connected master and slave (bytes)
system.tol2bus.pkt_size_system.cpu.icache.mem_side::system.l2.cpu_side        25280                       # Cumulative packet size per connected master and slave (bytes)
system.tol2bus.pkt_size_system.cpu.dcache.mem_side::system.l2.cpu_side      4582848                       # Cumulative packet size per connected master and slave (bytes)
system.tol2bus.pkt_size::total                4608128                       # Cumulative packet size per connected master and slave (bytes)
system.tol2bus.snoops                           33007                       # Total snoops (count)
system.tol2bus.snoopTraffic                   1407552                       # Total snoop traffic (bytes)
system.tol2bus.snoop_fanout::samples            85639                       # Request fanout histogram
system.tol2bus.snoop_fanout::mean            0.127290                       # Request fanout histogram
system.tol2bus.snoop_fanout::stdev           0.333300                       # Request fanout histogram
system.tol2bus.snoop_fanout::underflows             0      0.00%      0.00% # Request fanout histogram
system.tol2bus.snoop_fanout::0                  74738     87.27%     87.27% # Request fanout histogram
system.tol2bus.snoop_fanout::1                  10901     12.73%    100.00% # Request fanout histogram
system.tol2bus.snoop_fanout::2                      0      0.00%    100.00% # Request fanout histogram
system.tol2bus.snoop_fanout::3                      0      0.00%    100.00% # Request fanout histogram
system.tol2bus.snoop_fanout::4                      0      0.00%    100.00% # Request fanout histogram
system.tol2bus.snoop_fanout::overflows              0      0.00%    100.00% # Request fanout histogram
system.tol2bus.snoop_fanout::min_value              0                       # Request fanout histogram
system.tol2bus.snoop_fanout::max_value              1                       # Request fanout histogram
system.tol2bus.snoop_fanout::total              85639                       # Request fanout histogram
system.tol2bus.reqLayer0.occupancy           79027500                       # Layer occupancy (ticks)
system.tol2bus.reqLayer0.utilization              0.1                       # Layer utilization (%)
system.tol2bus.respLayer0.occupancy            528000                       # Layer occupancy (ticks)
system.tol2bus.respLayer0.utilization             0.0                       # Layer utilization (%)
system.tol2bus.respLayer1.occupancy          63036000                       # Layer occupancy (ticks)
system.tol2bus.respLayer1.utilization             0.1                       # Layer utilization (%)
system.tol3bus.pwrStateResidencyTicks::UNDEFINED  88188498000                       # Cumulative time (in ticks) in various power states
system.tol3bus.trans_dist::ReadResp             17416                       # Transaction distribution
system.tol3bus.trans_dist::WritebackDirty        21993                       # Transaction distribution
system.tol3bus.trans_dist::CleanEvict            1412                       # Transaction distribution
system.tol3bus.trans_dist::UpgradeReq              15                       # Transaction distribution
system.tol3bus.trans_dist::UpgradeResp             15                       # Transaction distribution
system.tol3bus.trans_dist::ReadExReq             6442                       # Transaction distribution
system.tol3bus.trans_dist::ReadExResp            6442                       # Transaction distribution
system.tol3bus.trans_dist::ReadSharedReq        17416                       # Transaction distribution
system.tol3bus.pkt_count_system.l2.mem_side::system.l3.cpu_side        69605                       # Packet count per connected master and slave (bytes)
system.tol3bus.pkt_size_system.l2.mem_side::system.l3.cpu_side      2893952                       # Cumulative packet size per connected master and slave (bytes)
system.tol3bus.snoops                            1546                       # Total snoops (count)
system.tol3bus.snoopTraffic                     40512                       # Total snoop traffic (bytes)
system.tol3bus.snoop_fanout::samples            47278                       # Request fanout histogram
system.tol3bus.snoop_fanout::mean            0.032700                       # Request fanout histogram
system.tol3bus.snoop_fanout::stdev           0.177853                       # Request fanout histogram
system.tol3bus.snoop_fanout::underflows             0      0.00%      0.00% # Request fanout histogram
system.tol3bus.snoop_fanout::0                  45732     96.73%     96.73% # Request fanout histogram
system.tol3bus.snoop_fanout::1                   1546      3.27%    100.00% # Request fanout histogram
system.tol3bus.snoop_fanout::overflows              0      0.00%    100.00% # Request fanout histogram
system.tol3bus.snoop_fanout::min_value              0                       # Request fanout histogram
system.tol3bus.snoop_fanout::max_value              1                       # Request fanout histogram
system.tol3bus.snoop_fanout::total              47278                       # Request fanout histogram
system.tol3bus.reqLayer0.occupancy           44226000                       # Layer occupancy (ticks)
system.tol3bus.reqLayer0.utilization              0.1                       # Layer utilization (%)
system.tol3bus.respLayer0.occupancy          35794500                       # Layer occupancy (ticks)
system.tol3bus.respLayer0.utilization             0.0                       # Layer utilization (%)

---------- End Simulation Statistics   ----------
